* NGSPICE file created from apb_sys_0.ext - technology: sky130A

* Black-box entry subcircuit for sky130_fd_sc_hd__fill_1 abstract view
.subckt sky130_fd_sc_hd__fill_1 VGND VNB VPB VPWR
.ends

* Black-box entry subcircuit for sky130_fd_sc_hd__a2bb2o_4 abstract view
.subckt sky130_fd_sc_hd__a2bb2o_4 A1_N A2_N B1 B2 VGND VNB VPB VPWR X
.ends

* Black-box entry subcircuit for sky130_fd_sc_hd__fill_2 abstract view
.subckt sky130_fd_sc_hd__fill_2 VGND VNB VPB VPWR
.ends

* Black-box entry subcircuit for sky130_fd_sc_hd__buf_2 abstract view
.subckt sky130_fd_sc_hd__buf_2 A VGND VNB VPB VPWR X
.ends

* Black-box entry subcircuit for sky130_fd_sc_hd__or4_4 abstract view
.subckt sky130_fd_sc_hd__or4_4 A B C D VGND VNB VPB VPWR X
.ends

* Black-box entry subcircuit for sky130_fd_sc_hd__or2_4 abstract view
.subckt sky130_fd_sc_hd__or2_4 A B VGND VNB VPB VPWR X
.ends

* Black-box entry subcircuit for sky130_fd_sc_hd__decap_4 abstract view
.subckt sky130_fd_sc_hd__decap_4 VGND VNB VPB VPWR
.ends

* Black-box entry subcircuit for sky130_fd_sc_hd__diode_2 abstract view
.subckt sky130_fd_sc_hd__diode_2 DIODE VGND VNB VPB VPWR
.ends

* Black-box entry subcircuit for sky130_fd_sc_hd__decap_12 abstract view
.subckt sky130_fd_sc_hd__decap_12 VGND VNB VPB VPWR
.ends

* Black-box entry subcircuit for sky130_fd_sc_hd__tapvpwrvgnd_1 abstract view
.subckt sky130_fd_sc_hd__tapvpwrvgnd_1 VGND VPWR
.ends

* Black-box entry subcircuit for sky130_fd_sc_hd__dfxtp_4 abstract view
.subckt sky130_fd_sc_hd__dfxtp_4 CLK D VGND VNB VPB VPWR Q
.ends

* Black-box entry subcircuit for sky130_fd_sc_hd__dfrtp_4 abstract view
.subckt sky130_fd_sc_hd__dfrtp_4 CLK D RESET_B VGND VNB VPB VPWR Q
.ends

* Black-box entry subcircuit for sky130_fd_sc_hd__decap_3 abstract view
.subckt sky130_fd_sc_hd__decap_3 VGND VNB VPB VPWR
.ends

* Black-box entry subcircuit for sky130_fd_sc_hd__o21ai_4 abstract view
.subckt sky130_fd_sc_hd__o21ai_4 A1 A2 B1 VGND VNB VPB VPWR Y
.ends

* Black-box entry subcircuit for sky130_fd_sc_hd__nor2_4 abstract view
.subckt sky130_fd_sc_hd__nor2_4 A B VGND VNB VPB VPWR Y
.ends

* Black-box entry subcircuit for sky130_fd_sc_hd__inv_2 abstract view
.subckt sky130_fd_sc_hd__inv_2 A VGND VNB VPB VPWR Y
.ends

* Black-box entry subcircuit for sky130_fd_sc_hd__a211o_4 abstract view
.subckt sky130_fd_sc_hd__a211o_4 A1 A2 B1 C1 VGND VNB VPB VPWR X
.ends

* Black-box entry subcircuit for sky130_fd_sc_hd__and2_4 abstract view
.subckt sky130_fd_sc_hd__and2_4 A B VGND VNB VPB VPWR X
.ends

* Black-box entry subcircuit for sky130_fd_sc_hd__decap_8 abstract view
.subckt sky130_fd_sc_hd__decap_8 VGND VNB VPB VPWR
.ends

* Black-box entry subcircuit for sky130_fd_sc_hd__decap_6 abstract view
.subckt sky130_fd_sc_hd__decap_6 VGND VNB VPB VPWR
.ends

* Black-box entry subcircuit for sky130_fd_sc_hd__clkbuf_1 abstract view
.subckt sky130_fd_sc_hd__clkbuf_1 A VGND VNB VPB VPWR X
.ends

* Black-box entry subcircuit for sky130_fd_sc_hd__o22a_4 abstract view
.subckt sky130_fd_sc_hd__o22a_4 A1 A2 B1 B2 VGND VNB VPB VPWR X
.ends

* Black-box entry subcircuit for sky130_fd_sc_hd__and3_4 abstract view
.subckt sky130_fd_sc_hd__and3_4 A B C VGND VNB VPB VPWR X
.ends

* Black-box entry subcircuit for sky130_fd_sc_hd__or3_4 abstract view
.subckt sky130_fd_sc_hd__or3_4 A B C VGND VNB VPB VPWR X
.ends

* Black-box entry subcircuit for sky130_fd_sc_hd__a32o_4 abstract view
.subckt sky130_fd_sc_hd__a32o_4 A1 A2 A3 B1 B2 VGND VNB VPB VPWR X
.ends

* Black-box entry subcircuit for sky130_fd_sc_hd__and4_4 abstract view
.subckt sky130_fd_sc_hd__and4_4 A B C D VGND VNB VPB VPWR X
.ends

* Black-box entry subcircuit for sky130_fd_sc_hd__a21oi_4 abstract view
.subckt sky130_fd_sc_hd__a21oi_4 A1 A2 B1 VGND VNB VPB VPWR Y
.ends

* Black-box entry subcircuit for sky130_fd_sc_hd__dfstp_4 abstract view
.subckt sky130_fd_sc_hd__dfstp_4 CLK D SET_B VGND VNB VPB VPWR Q
.ends

* Black-box entry subcircuit for sky130_fd_sc_hd__nand2_4 abstract view
.subckt sky130_fd_sc_hd__nand2_4 A B VGND VNB VPB VPWR Y
.ends

* Black-box entry subcircuit for sky130_fd_sc_hd__a22oi_4 abstract view
.subckt sky130_fd_sc_hd__a22oi_4 A1 A2 B1 B2 VGND VNB VPB VPWR Y
.ends

* Black-box entry subcircuit for sky130_fd_sc_hd__o21a_4 abstract view
.subckt sky130_fd_sc_hd__o21a_4 A1 A2 B1 VGND VNB VPB VPWR X
.ends

* Black-box entry subcircuit for sky130_fd_sc_hd__a21o_4 abstract view
.subckt sky130_fd_sc_hd__a21o_4 A1 A2 B1 VGND VNB VPB VPWR X
.ends

* Black-box entry subcircuit for sky130_fd_sc_hd__o32a_4 abstract view
.subckt sky130_fd_sc_hd__o32a_4 A1 A2 A3 B1 B2 VGND VNB VPB VPWR X
.ends

* Black-box entry subcircuit for sky130_fd_sc_hd__a2111o_4 abstract view
.subckt sky130_fd_sc_hd__a2111o_4 A1 A2 B1 C1 D1 VGND VNB VPB VPWR X
.ends

* Black-box entry subcircuit for sky130_fd_sc_hd__o41a_4 abstract view
.subckt sky130_fd_sc_hd__o41a_4 A1 A2 A3 A4 B1 VGND VNB VPB VPWR X
.ends

* Black-box entry subcircuit for sky130_fd_sc_hd__a21bo_4 abstract view
.subckt sky130_fd_sc_hd__a21bo_4 A1 A2 B1_N VGND VNB VPB VPWR X
.ends

* Black-box entry subcircuit for sky130_fd_sc_hd__a21boi_4 abstract view
.subckt sky130_fd_sc_hd__a21boi_4 A1 A2 B1_N VGND VNB VPB VPWR Y
.ends

* Black-box entry subcircuit for sky130_fd_sc_hd__conb_1 abstract view
.subckt sky130_fd_sc_hd__conb_1 VGND VNB VPB VPWR HI LO
.ends

* Black-box entry subcircuit for sky130_fd_sc_hd__clkbuf_16 abstract view
.subckt sky130_fd_sc_hd__clkbuf_16 A VGND VNB VPB VPWR X
.ends

.subckt apb_sys_0 HADDR[0] HADDR[10] HADDR[11] HADDR[12] HADDR[13] HADDR[14] HADDR[15]
+ HADDR[16] HADDR[17] HADDR[18] HADDR[19] HADDR[1] HADDR[20] HADDR[21] HADDR[22] HADDR[23]
+ HADDR[24] HADDR[25] HADDR[26] HADDR[27] HADDR[28] HADDR[29] HADDR[2] HADDR[30] HADDR[31]
+ HADDR[3] HADDR[4] HADDR[5] HADDR[6] HADDR[7] HADDR[8] HADDR[9] HCLK HRDATA[0] HRDATA[10]
+ HRDATA[11] HRDATA[12] HRDATA[13] HRDATA[14] HRDATA[15] HRDATA[16] HRDATA[17] HRDATA[18]
+ HRDATA[19] HRDATA[1] HRDATA[20] HRDATA[21] HRDATA[22] HRDATA[23] HRDATA[24] HRDATA[25]
+ HRDATA[26] HRDATA[27] HRDATA[28] HRDATA[29] HRDATA[2] HRDATA[30] HRDATA[31] HRDATA[3]
+ HRDATA[4] HRDATA[5] HRDATA[6] HRDATA[7] HRDATA[8] HRDATA[9] HREADY HREADYOUT HRESETn
+ HSEL HTRANS[0] HTRANS[1] HWDATA[0] HWDATA[10] HWDATA[11] HWDATA[12] HWDATA[13] HWDATA[14]
+ HWDATA[15] HWDATA[16] HWDATA[17] HWDATA[18] HWDATA[19] HWDATA[1] HWDATA[20] HWDATA[21]
+ HWDATA[22] HWDATA[23] HWDATA[24] HWDATA[25] HWDATA[26] HWDATA[27] HWDATA[28] HWDATA[29]
+ HWDATA[2] HWDATA[30] HWDATA[31] HWDATA[3] HWDATA[4] HWDATA[5] HWDATA[6] HWDATA[7]
+ HWDATA[8] HWDATA[9] HWRITE IRQ[0] IRQ[10] IRQ[11] IRQ[12] IRQ[13] IRQ[14] IRQ[15]
+ IRQ[1] IRQ[2] IRQ[3] IRQ[4] IRQ[5] IRQ[6] IRQ[7] IRQ[8] IRQ[9] MSI_S2 MSI_S3 MSO_S2
+ MSO_S3 RsRx_S0 RsRx_S1 RsTx_S0 RsTx_S1 SCLK_S2 SCLK_S3 SSn_S2 SSn_S3 pwm_S6 pwm_S7
+ scl_i_S4 scl_i_S5 scl_o_S4 scl_o_S5 scl_oen_o_S4 scl_oen_o_S5 sda_i_S4 sda_i_S5
+ sda_o_S4 sda_o_S5 sda_oen_o_S4 sda_oen_o_S5 VPWR VGND
XFILLER_140_296 VGND VGND VPWR VPWR sky130_fd_sc_hd__fill_1
X_18869_ _16482_/Y _24157_/Q _16497_/Y _24151_/Q VGND VGND VPWR VPWR _18869_/X sky130_fd_sc_hd__a2bb2o_4
XFILLER_223_65 VGND VGND VPWR VPWR sky130_fd_sc_hd__fill_2
X_20900_ _20836_/A VGND VGND VPWR VPWR _20900_/X sky130_fd_sc_hd__buf_2
X_21880_ _21880_/A _21867_/Y _21872_/X _21879_/X VGND VGND VPWR VPWR _21880_/X sky130_fd_sc_hd__or4_4
X_20831_ _20831_/A _20831_/B VGND VGND VPWR VPWR _20881_/A sky130_fd_sc_hd__or2_4
XFILLER_208_581 VGND VGND VPWR VPWR sky130_fd_sc_hd__decap_4
XFILLER_70_707 VGND VGND VPWR VPWR sky130_fd_sc_hd__fill_1
XANTENNA__21832__A _22274_/A VGND VGND VPWR VPWR sky130_fd_sc_hd__diode_2
XFILLER_242_337 VGND VGND VPWR VPWR sky130_fd_sc_hd__decap_12
XANTENNA__24992__RESET_B HRESETn VGND VGND VPWR VPWR sky130_fd_sc_hd__diode_2
XPHY_3109 VGND VPWR sky130_fd_sc_hd__tapvpwrvgnd_1
XANTENNA__22342__A2 _22327_/X VGND VGND VPWR VPWR sky130_fd_sc_hd__diode_2
X_20762_ _13143_/C VGND VGND VPWR VPWR _20768_/B sky130_fd_sc_hd__buf_2
X_23550_ _23582_/CLK _20011_/X VGND VGND VPWR VPWR _20009_/A sky130_fd_sc_hd__dfxtp_4
XANTENNA__17217__A2_N _17391_/A VGND VGND VPWR VPWR sky130_fd_sc_hd__diode_2
XANTENNA__24921__RESET_B HRESETn VGND VGND VPWR VPWR sky130_fd_sc_hd__diode_2
XPHY_2408 VGND VPWR sky130_fd_sc_hd__tapvpwrvgnd_1
XFILLER_196_904 VGND VGND VPWR VPWR sky130_fd_sc_hd__decap_12
XANTENNA__16557__B1 _16294_/X VGND VGND VPWR VPWR sky130_fd_sc_hd__diode_2
XPHY_2419 VGND VPWR sky130_fd_sc_hd__tapvpwrvgnd_1
XFILLER_168_606 VGND VGND VPWR VPWR sky130_fd_sc_hd__fill_2
X_22501_ _22204_/A VGND VGND VPWR VPWR _22501_/X sky130_fd_sc_hd__buf_2
XPHY_1707 VGND VPWR sky130_fd_sc_hd__tapvpwrvgnd_1
X_23481_ _23488_/CLK _23481_/D VGND VGND VPWR VPWR _23481_/Q sky130_fd_sc_hd__dfxtp_4
XANTENNA__24239__RESET_B HRESETn VGND VGND VPWR VPWR sky130_fd_sc_hd__diode_2
X_20693_ _20693_/A _20693_/B VGND VGND VPWR VPWR _20694_/A sky130_fd_sc_hd__or2_4
XFILLER_167_116 VGND VGND VPWR VPWR sky130_fd_sc_hd__fill_1
XPHY_1718 VGND VPWR sky130_fd_sc_hd__tapvpwrvgnd_1
XFILLER_168_29 VGND VGND VPWR VPWR sky130_fd_sc_hd__fill_2
XFILLER_10_306 VGND VGND VPWR VPWR sky130_fd_sc_hd__decap_4
XPHY_1729 VGND VPWR sky130_fd_sc_hd__tapvpwrvgnd_1
X_22432_ _20864_/Y _22296_/X _20725_/A _21322_/X VGND VGND VPWR VPWR _22432_/X sky130_fd_sc_hd__a2bb2o_4
X_25220_ _25215_/CLK _14170_/X HRESETn VGND VGND VPWR VPWR _14108_/C sky130_fd_sc_hd__dfrtp_4
XFILLER_195_458 VGND VGND VPWR VPWR sky130_fd_sc_hd__decap_4
XFILLER_22_177 VGND VGND VPWR VPWR sky130_fd_sc_hd__decap_3
XFILLER_149_853 VGND VGND VPWR VPWR sky130_fd_sc_hd__fill_1
XFILLER_183_609 VGND VGND VPWR VPWR sky130_fd_sc_hd__fill_1
X_22363_ _22359_/X _22362_/X _21697_/X VGND VGND VPWR VPWR _22363_/Y sky130_fd_sc_hd__o21ai_4
X_25151_ _24095_/CLK _14413_/X HRESETn VGND VGND VPWR VPWR _20614_/A sky130_fd_sc_hd__dfrtp_4
XFILLER_163_300 VGND VGND VPWR VPWR sky130_fd_sc_hd__decap_4
XFILLER_164_823 VGND VGND VPWR VPWR sky130_fd_sc_hd__fill_1
XANTENNA__21853__A1 _21320_/X VGND VGND VPWR VPWR sky130_fd_sc_hd__diode_2
XFILLER_163_311 VGND VGND VPWR VPWR sky130_fd_sc_hd__decap_12
XFILLER_175_182 VGND VGND VPWR VPWR sky130_fd_sc_hd__fill_1
X_21314_ _21314_/A VGND VGND VPWR VPWR _21314_/X sky130_fd_sc_hd__buf_2
X_24102_ _25177_/CLK _13655_/Y HRESETn VGND VGND VPWR VPWR _14310_/A sky130_fd_sc_hd__dfrtp_4
X_25082_ _25082_/CLK _14653_/X HRESETn VGND VGND VPWR VPWR _14794_/A sky130_fd_sc_hd__dfrtp_4
X_22294_ _22294_/A _22294_/B VGND VGND VPWR VPWR _22311_/C sky130_fd_sc_hd__nor2_4
X_24033_ _24495_/CLK _20778_/X HRESETn VGND VGND VPWR VPWR _24033_/Q sky130_fd_sc_hd__dfrtp_4
X_21245_ _14687_/A VGND VGND VPWR VPWR _21246_/A sky130_fd_sc_hd__inv_2
XANTENNA__25098__RESET_B HRESETn VGND VGND VPWR VPWR sky130_fd_sc_hd__diode_2
X_21176_ _16454_/Y _21574_/A _16379_/A _21175_/X VGND VGND VPWR VPWR _21177_/C sky130_fd_sc_hd__a211o_4
XFILLER_89_155 VGND VGND VPWR VPWR sky130_fd_sc_hd__decap_4
XANTENNA__25027__RESET_B HRESETn VGND VGND VPWR VPWR sky130_fd_sc_hd__diode_2
X_20127_ _19859_/X _13757_/X VGND VGND VPWR VPWR _20128_/A sky130_fd_sc_hd__and2_4
XFILLER_131_296 VGND VGND VPWR VPWR sky130_fd_sc_hd__decap_8
XFILLER_219_835 VGND VGND VPWR VPWR sky130_fd_sc_hd__fill_2
X_20058_ _13762_/X _14706_/A _13774_/X _13775_/X VGND VGND VPWR VPWR _20059_/A sky130_fd_sc_hd__or4_4
X_24935_ _24354_/CLK _15543_/X HRESETn VGND VGND VPWR VPWR _11731_/A sky130_fd_sc_hd__dfrtp_4
XFILLER_85_350 VGND VGND VPWR VPWR sky130_fd_sc_hd__decap_6
XFILLER_58_564 VGND VGND VPWR VPWR sky130_fd_sc_hd__decap_3
XFILLER_100_661 VGND VGND VPWR VPWR sky130_fd_sc_hd__decap_3
XFILLER_246_654 VGND VGND VPWR VPWR sky130_fd_sc_hd__decap_12
X_11900_ _11900_/A VGND VGND VPWR VPWR _11901_/A sky130_fd_sc_hd__inv_2
XANTENNA__19982__B1 _19646_/X VGND VGND VPWR VPWR sky130_fd_sc_hd__diode_2
X_12880_ _12790_/A _12880_/B VGND VGND VPWR VPWR _12880_/X sky130_fd_sc_hd__or2_4
X_24866_ _24867_/CLK _24866_/D HRESETn VGND VGND VPWR VPWR _24866_/Q sky130_fd_sc_hd__dfrtp_4
XFILLER_133_98 VGND VGND VPWR VPWR sky130_fd_sc_hd__decap_4
XPHY_4300 VGND VPWR sky130_fd_sc_hd__tapvpwrvgnd_1
XFILLER_172_3 VGND VGND VPWR VPWR sky130_fd_sc_hd__decap_12
XFILLER_93_47 VGND VGND VPWR VPWR sky130_fd_sc_hd__fill_1
XPHY_4311 VGND VPWR sky130_fd_sc_hd__tapvpwrvgnd_1
Xclkbuf_8_128_0_HCLK clkbuf_7_64_0_HCLK/X VGND VGND VPWR VPWR _24258_/CLK sky130_fd_sc_hd__clkbuf_1
XPHY_4322 VGND VPWR sky130_fd_sc_hd__tapvpwrvgnd_1
X_11831_ _11830_/X VGND VGND VPWR VPWR _11831_/X sky130_fd_sc_hd__buf_2
X_23817_ _23454_/CLK _23817_/D VGND VGND VPWR VPWR _13312_/B sky130_fd_sc_hd__dfxtp_4
XPHY_4333 VGND VPWR sky130_fd_sc_hd__tapvpwrvgnd_1
XFILLER_199_720 VGND VGND VPWR VPWR sky130_fd_sc_hd__fill_1
XPHY_4344 VGND VPWR sky130_fd_sc_hd__tapvpwrvgnd_1
X_24797_ _24799_/CLK _15910_/X HRESETn VGND VGND VPWR VPWR _22428_/A sky130_fd_sc_hd__dfrtp_4
XFILLER_61_729 VGND VGND VPWR VPWR sky130_fd_sc_hd__decap_3
XPHY_4355 VGND VPWR sky130_fd_sc_hd__tapvpwrvgnd_1
XPHY_3610 VGND VPWR sky130_fd_sc_hd__tapvpwrvgnd_1
XPHY_4366 VGND VPWR sky130_fd_sc_hd__tapvpwrvgnd_1
XPHY_3621 VGND VPWR sky130_fd_sc_hd__tapvpwrvgnd_1
XANTENNA__22557__B _16382_/A VGND VGND VPWR VPWR sky130_fd_sc_hd__diode_2
X_14550_ _14550_/A _14550_/B VGND VGND VPWR VPWR _14550_/X sky130_fd_sc_hd__or2_4
XFILLER_26_483 VGND VGND VPWR VPWR sky130_fd_sc_hd__decap_8
XANTENNA__24662__RESET_B HRESETn VGND VGND VPWR VPWR sky130_fd_sc_hd__diode_2
XPHY_4377 VGND VPWR sky130_fd_sc_hd__tapvpwrvgnd_1
XPHY_3632 VGND VPWR sky130_fd_sc_hd__tapvpwrvgnd_1
X_11762_ _25553_/Q VGND VGND VPWR VPWR _11762_/Y sky130_fd_sc_hd__inv_2
X_23748_ _23669_/CLK _23748_/D VGND VGND VPWR VPWR _17963_/B sky130_fd_sc_hd__dfxtp_4
XPHY_3643 VGND VPWR sky130_fd_sc_hd__tapvpwrvgnd_1
XPHY_3654 VGND VPWR sky130_fd_sc_hd__tapvpwrvgnd_1
XPHY_3665 VGND VPWR sky130_fd_sc_hd__tapvpwrvgnd_1
XPHY_2920 VGND VPWR sky130_fd_sc_hd__tapvpwrvgnd_1
X_13501_ _13500_/Y _13498_/X _11871_/X _13498_/X VGND VGND VPWR VPWR _13501_/X sky130_fd_sc_hd__a2bb2o_4
XFILLER_41_442 VGND VGND VPWR VPWR sky130_fd_sc_hd__decap_6
XPHY_3676 VGND VPWR sky130_fd_sc_hd__tapvpwrvgnd_1
XPHY_2931 VGND VPWR sky130_fd_sc_hd__tapvpwrvgnd_1
XPHY_2942 VGND VPWR sky130_fd_sc_hd__tapvpwrvgnd_1
X_14481_ _25127_/Q VGND VGND VPWR VPWR _14481_/Y sky130_fd_sc_hd__inv_2
XFILLER_14_678 VGND VGND VPWR VPWR sky130_fd_sc_hd__decap_12
XPHY_3687 VGND VPWR sky130_fd_sc_hd__tapvpwrvgnd_1
X_11693_ _11691_/A _24232_/Q _13690_/A _11692_/Y VGND VGND VPWR VPWR _11693_/X sky130_fd_sc_hd__o22a_4
X_23679_ _23582_/CLK _23679_/D VGND VGND VPWR VPWR _19641_/A sky130_fd_sc_hd__dfxtp_4
XPHY_3698 VGND VPWR sky130_fd_sc_hd__tapvpwrvgnd_1
XPHY_2953 VGND VPWR sky130_fd_sc_hd__tapvpwrvgnd_1
XPHY_2964 VGND VPWR sky130_fd_sc_hd__tapvpwrvgnd_1
X_16220_ _16219_/Y _16215_/X _15960_/X _16215_/X VGND VGND VPWR VPWR _16220_/X sky130_fd_sc_hd__a2bb2o_4
XFILLER_41_486 VGND VGND VPWR VPWR sky130_fd_sc_hd__fill_2
XPHY_2975 VGND VPWR sky130_fd_sc_hd__tapvpwrvgnd_1
X_13432_ _13243_/X _13432_/B VGND VGND VPWR VPWR _13432_/X sky130_fd_sc_hd__or2_4
X_25418_ _25410_/CLK _12709_/Y HRESETn VGND VGND VPWR VPWR _12574_/A sky130_fd_sc_hd__dfrtp_4
XPHY_2986 VGND VPWR sky130_fd_sc_hd__tapvpwrvgnd_1
XPHY_2997 VGND VPWR sky130_fd_sc_hd__tapvpwrvgnd_1
XFILLER_42_62 VGND VGND VPWR VPWR sky130_fd_sc_hd__decap_8
X_16151_ _16150_/Y _16148_/X _15905_/X _16148_/X VGND VGND VPWR VPWR _16151_/X sky130_fd_sc_hd__a2bb2o_4
X_13363_ _13242_/X _13361_/X _13363_/C VGND VGND VPWR VPWR _13363_/X sky130_fd_sc_hd__and3_4
X_25349_ _25368_/CLK _13102_/X HRESETn VGND VGND VPWR VPWR _25349_/Q sky130_fd_sc_hd__dfrtp_4
XFILLER_139_385 VGND VGND VPWR VPWR sky130_fd_sc_hd__fill_2
XFILLER_127_525 VGND VGND VPWR VPWR sky130_fd_sc_hd__fill_1
XANTENNA__16571__A _16571_/A VGND VGND VPWR VPWR sky130_fd_sc_hd__diode_2
X_15102_ _15396_/A _24585_/Q _15396_/A _24585_/Q VGND VGND VPWR VPWR _15102_/X sky130_fd_sc_hd__a2bb2o_4
XFILLER_154_333 VGND VGND VPWR VPWR sky130_fd_sc_hd__fill_1
XFILLER_182_642 VGND VGND VPWR VPWR sky130_fd_sc_hd__decap_12
X_12314_ _24835_/Q VGND VGND VPWR VPWR _12314_/Y sky130_fd_sc_hd__inv_2
XFILLER_155_867 VGND VGND VPWR VPWR sky130_fd_sc_hd__decap_12
X_16082_ _24722_/Q VGND VGND VPWR VPWR _16082_/Y sky130_fd_sc_hd__inv_2
X_13294_ _13241_/X _13289_/X _13293_/X VGND VGND VPWR VPWR _13294_/X sky130_fd_sc_hd__or3_4
XFILLER_154_355 VGND VGND VPWR VPWR sky130_fd_sc_hd__decap_12
X_15033_ _15282_/A _15000_/Y _25023_/Q _15032_/Y VGND VGND VPWR VPWR _15033_/X sky130_fd_sc_hd__a2bb2o_4
X_19910_ _19904_/Y VGND VGND VPWR VPWR _19910_/X sky130_fd_sc_hd__buf_2
XFILLER_6_899 VGND VGND VPWR VPWR sky130_fd_sc_hd__fill_1
X_12245_ _12439_/B _22644_/A _12296_/B _22644_/A VGND VGND VPWR VPWR _12245_/X sky130_fd_sc_hd__a2bb2o_4
XFILLER_107_260 VGND VGND VPWR VPWR sky130_fd_sc_hd__decap_12
XFILLER_181_196 VGND VGND VPWR VPWR sky130_fd_sc_hd__decap_8
XANTENNA__25450__RESET_B HRESETn VGND VGND VPWR VPWR sky130_fd_sc_hd__diode_2
X_12176_ _25475_/Q _14334_/A _12175_/X _12170_/X VGND VGND VPWR VPWR _12177_/A sky130_fd_sc_hd__a211o_4
X_19841_ _23611_/Q VGND VGND VPWR VPWR _22230_/B sky130_fd_sc_hd__inv_2
X_16984_ _24729_/Q _24386_/Q _16063_/Y _17142_/A VGND VGND VPWR VPWR _16984_/X sky130_fd_sc_hd__o22a_4
X_19772_ HWDATA[5] VGND VGND VPWR VPWR _19772_/X sky130_fd_sc_hd__buf_2
XFILLER_122_285 VGND VGND VPWR VPWR sky130_fd_sc_hd__decap_12
XFILLER_1_593 VGND VGND VPWR VPWR sky130_fd_sc_hd__decap_12
X_15935_ _15664_/X _15844_/X _15933_/X _24786_/Q _15934_/X VGND VGND VPWR VPWR _24786_/D
+ sky130_fd_sc_hd__a32o_4
X_18723_ _18722_/X VGND VGND VPWR VPWR _18723_/Y sky130_fd_sc_hd__inv_2
XANTENNA__11848__B1 _11847_/X VGND VGND VPWR VPWR sky130_fd_sc_hd__diode_2
XFILLER_83_309 VGND VGND VPWR VPWR sky130_fd_sc_hd__fill_1
XFILLER_77_873 VGND VGND VPWR VPWR sky130_fd_sc_hd__fill_2
XFILLER_37_704 VGND VGND VPWR VPWR sky130_fd_sc_hd__decap_12
Xclkbuf_7_24_0_HCLK clkbuf_7_25_0_HCLK/A VGND VGND VPWR VPWR clkbuf_7_24_0_HCLK/X
+ sky130_fd_sc_hd__clkbuf_1
XFILLER_190_71 VGND VGND VPWR VPWR sky130_fd_sc_hd__fill_1
XANTENNA__22572__A2 _22571_/X VGND VGND VPWR VPWR sky130_fd_sc_hd__diode_2
X_18654_ _24154_/Q VGND VGND VPWR VPWR _18744_/A sky130_fd_sc_hd__buf_2
X_15866_ _21173_/B VGND VGND VPWR VPWR _15866_/X sky130_fd_sc_hd__buf_2
XFILLER_237_676 VGND VGND VPWR VPWR sky130_fd_sc_hd__decap_12
Xclkbuf_7_87_0_HCLK clkbuf_7_87_0_HCLK/A VGND VGND VPWR VPWR clkbuf_7_87_0_HCLK/X
+ sky130_fd_sc_hd__clkbuf_1
X_14817_ _14817_/A VGND VGND VPWR VPWR _14835_/A sky130_fd_sc_hd__buf_2
X_17605_ _17604_/X VGND VGND VPWR VPWR _17606_/B sky130_fd_sc_hd__inv_2
X_18585_ _18493_/A VGND VGND VPWR VPWR _18598_/C sky130_fd_sc_hd__buf_2
XFILLER_224_337 VGND VGND VPWR VPWR sky130_fd_sc_hd__fill_1
XFILLER_236_197 VGND VGND VPWR VPWR sky130_fd_sc_hd__decap_8
X_15797_ _15796_/X VGND VGND VPWR VPWR _15797_/X sky130_fd_sc_hd__buf_2
XFILLER_91_364 VGND VGND VPWR VPWR sky130_fd_sc_hd__fill_2
XANTENNA__20828__A1_N _20698_/X VGND VGND VPWR VPWR sky130_fd_sc_hd__diode_2
X_17536_ _25542_/Q _17578_/B _11849_/Y _17538_/A VGND VGND VPWR VPWR _17542_/A sky130_fd_sc_hd__a2bb2o_4
XANTENNA__15650__A _22121_/A VGND VGND VPWR VPWR sky130_fd_sc_hd__diode_2
X_14748_ _14740_/X _14747_/Y _14734_/A _14732_/Y VGND VGND VPWR VPWR _14748_/X sky130_fd_sc_hd__a2bb2o_4
XFILLER_44_291 VGND VGND VPWR VPWR sky130_fd_sc_hd__fill_1
XANTENNA__24332__RESET_B HRESETn VGND VGND VPWR VPWR sky130_fd_sc_hd__diode_2
X_17467_ _17465_/X VGND VGND VPWR VPWR _17467_/Y sky130_fd_sc_hd__inv_2
XFILLER_60_762 VGND VGND VPWR VPWR sky130_fd_sc_hd__fill_1
X_14679_ _13628_/B _14679_/B VGND VGND VPWR VPWR _19436_/B sky130_fd_sc_hd__or2_4
XFILLER_177_436 VGND VGND VPWR VPWR sky130_fd_sc_hd__fill_1
XFILLER_20_615 VGND VGND VPWR VPWR sky130_fd_sc_hd__decap_6
X_16418_ _15127_/Y _16415_/X _16417_/X _16415_/X VGND VGND VPWR VPWR _16418_/X sky130_fd_sc_hd__a2bb2o_4
X_19206_ _19205_/Y _19203_/X _19184_/X _19203_/X VGND VGND VPWR VPWR _23830_/D sky130_fd_sc_hd__a2bb2o_4
XFILLER_20_648 VGND VGND VPWR VPWR sky130_fd_sc_hd__decap_6
X_17398_ _17398_/A _17398_/B VGND VGND VPWR VPWR _17399_/B sky130_fd_sc_hd__or2_4
XANTENNA__22483__A _22483_/A VGND VGND VPWR VPWR sky130_fd_sc_hd__diode_2
X_19137_ _19136_/Y _19134_/X _19048_/X _19134_/X VGND VGND VPWR VPWR _19137_/X sky130_fd_sc_hd__a2bb2o_4
X_16349_ HWDATA[10] VGND VGND VPWR VPWR _16349_/X sky130_fd_sc_hd__buf_2
XFILLER_145_311 VGND VGND VPWR VPWR sky130_fd_sc_hd__decap_6
XANTENNA__25538__RESET_B HRESETn VGND VGND VPWR VPWR sky130_fd_sc_hd__diode_2
X_19068_ _19061_/A VGND VGND VPWR VPWR _19068_/X sky130_fd_sc_hd__buf_2
XFILLER_218_32 VGND VGND VPWR VPWR sky130_fd_sc_hd__fill_1
XANTENNA__21099__A _23087_/B VGND VGND VPWR VPWR sky130_fd_sc_hd__diode_2
XFILLER_172_152 VGND VGND VPWR VPWR sky130_fd_sc_hd__fill_1
X_18019_ _18060_/A _23851_/Q VGND VGND VPWR VPWR _18022_/B sky130_fd_sc_hd__or2_4
XANTENNA__13525__B1 _13524_/X VGND VGND VPWR VPWR sky130_fd_sc_hd__diode_2
XANTENNA__12328__B2 _12327_/Y VGND VGND VPWR VPWR sky130_fd_sc_hd__diode_2
XFILLER_218_76 VGND VGND VPWR VPWR sky130_fd_sc_hd__fill_2
XFILLER_99_431 VGND VGND VPWR VPWR sky130_fd_sc_hd__decap_8
X_21030_ _22306_/A VGND VGND VPWR VPWR _21060_/A sky130_fd_sc_hd__buf_2
XANTENNA__25191__RESET_B HRESETn VGND VGND VPWR VPWR sky130_fd_sc_hd__diode_2
XANTENNA__21827__A _21808_/A VGND VGND VPWR VPWR sky130_fd_sc_hd__diode_2
XFILLER_99_475 VGND VGND VPWR VPWR sky130_fd_sc_hd__decap_8
XFILLER_59_306 VGND VGND VPWR VPWR sky130_fd_sc_hd__fill_1
XANTENNA__20271__B1 _20249_/X VGND VGND VPWR VPWR sky130_fd_sc_hd__diode_2
XANTENNA__25120__RESET_B HRESETn VGND VGND VPWR VPWR sky130_fd_sc_hd__diode_2
XFILLER_99_497 VGND VGND VPWR VPWR sky130_fd_sc_hd__fill_1
XFILLER_59_328 VGND VGND VPWR VPWR sky130_fd_sc_hd__fill_1
XFILLER_113_296 VGND VGND VPWR VPWR sky130_fd_sc_hd__fill_1
XFILLER_86_147 VGND VGND VPWR VPWR sky130_fd_sc_hd__decap_6
XANTENNA__11839__B1 _11838_/X VGND VGND VPWR VPWR sky130_fd_sc_hd__diode_2
X_22981_ _21449_/A VGND VGND VPWR VPWR _23117_/A sky130_fd_sc_hd__buf_2
XFILLER_228_654 VGND VGND VPWR VPWR sky130_fd_sc_hd__fill_1
X_24720_ _23386_/CLK _24720_/D HRESETn VGND VGND VPWR VPWR _21022_/A sky130_fd_sc_hd__dfrtp_4
XANTENNA__13345__A _13212_/A VGND VGND VPWR VPWR sky130_fd_sc_hd__diode_2
X_21932_ _18314_/X VGND VGND VPWR VPWR _21938_/A sky130_fd_sc_hd__buf_2
XFILLER_27_236 VGND VGND VPWR VPWR sky130_fd_sc_hd__decap_8
XFILLER_209_890 VGND VGND VPWR VPWR sky130_fd_sc_hd__decap_12
X_24651_ _24651_/CLK _24651_/D HRESETn VGND VGND VPWR VPWR _21021_/A sky130_fd_sc_hd__dfrtp_4
X_21863_ _21858_/X _21863_/B _21860_/X _21863_/D VGND VGND VPWR VPWR _21863_/X sky130_fd_sc_hd__and4_4
XANTENNA__19716__B1 _19620_/X VGND VGND VPWR VPWR sky130_fd_sc_hd__diode_2
X_23602_ _25068_/CLK _19868_/X VGND VGND VPWR VPWR _23602_/Q sky130_fd_sc_hd__dfxtp_4
XFILLER_242_156 VGND VGND VPWR VPWR sky130_fd_sc_hd__fill_1
XFILLER_42_228 VGND VGND VPWR VPWR sky130_fd_sc_hd__decap_12
XANTENNA__15560__A _14386_/A VGND VGND VPWR VPWR sky130_fd_sc_hd__diode_2
X_20814_ _24042_/Q _20810_/X _20818_/B VGND VGND VPWR VPWR _20814_/Y sky130_fd_sc_hd__a21oi_4
X_21794_ _22237_/A _21794_/B _21793_/X VGND VGND VPWR VPWR _21794_/X sky130_fd_sc_hd__or3_4
X_24582_ _24562_/CLK _24582_/D HRESETn VGND VGND VPWR VPWR _16472_/A sky130_fd_sc_hd__dfrtp_4
XPHY_2205 VGND VPWR sky130_fd_sc_hd__tapvpwrvgnd_1
XPHY_905 VGND VPWR sky130_fd_sc_hd__tapvpwrvgnd_1
XFILLER_196_701 VGND VGND VPWR VPWR sky130_fd_sc_hd__fill_1
XFILLER_224_882 VGND VGND VPWR VPWR sky130_fd_sc_hd__decap_3
XPHY_2216 VGND VPWR sky130_fd_sc_hd__tapvpwrvgnd_1
XPHY_916 VGND VPWR sky130_fd_sc_hd__tapvpwrvgnd_1
XPHY_927 VGND VPWR sky130_fd_sc_hd__tapvpwrvgnd_1
XPHY_2227 VGND VPWR sky130_fd_sc_hd__tapvpwrvgnd_1
XPHY_938 VGND VPWR sky130_fd_sc_hd__tapvpwrvgnd_1
X_23533_ _23582_/CLK _23533_/D VGND VGND VPWR VPWR _23533_/Q sky130_fd_sc_hd__dfxtp_4
XFILLER_211_532 VGND VGND VPWR VPWR sky130_fd_sc_hd__decap_12
XANTENNA__24073__RESET_B HRESETn VGND VGND VPWR VPWR sky130_fd_sc_hd__diode_2
XPHY_2238 VGND VPWR sky130_fd_sc_hd__tapvpwrvgnd_1
XPHY_949 VGND VPWR sky130_fd_sc_hd__tapvpwrvgnd_1
X_20745_ _20739_/X _20741_/Y _24908_/Q _20744_/X VGND VGND VPWR VPWR _20745_/X sky130_fd_sc_hd__a2bb2o_4
XFILLER_195_211 VGND VGND VPWR VPWR sky130_fd_sc_hd__fill_1
XFILLER_23_464 VGND VGND VPWR VPWR sky130_fd_sc_hd__fill_1
XPHY_2249 VGND VPWR sky130_fd_sc_hd__tapvpwrvgnd_1
XPHY_1504 VGND VPWR sky130_fd_sc_hd__tapvpwrvgnd_1
XPHY_1515 VGND VPWR sky130_fd_sc_hd__tapvpwrvgnd_1
XPHY_1526 VGND VPWR sky130_fd_sc_hd__tapvpwrvgnd_1
XFILLER_50_272 VGND VGND VPWR VPWR sky130_fd_sc_hd__decap_3
XPHY_1537 VGND VPWR sky130_fd_sc_hd__tapvpwrvgnd_1
XANTENNA__24002__RESET_B HRESETn VGND VGND VPWR VPWR sky130_fd_sc_hd__diode_2
X_20676_ _23999_/Q _17408_/B _17410_/A VGND VGND VPWR VPWR _20676_/Y sky130_fd_sc_hd__a21oi_4
X_23464_ _23466_/CLK _23464_/D VGND VGND VPWR VPWR _18114_/B sky130_fd_sc_hd__dfxtp_4
XANTENNA__23276__B1 _22108_/X VGND VGND VPWR VPWR sky130_fd_sc_hd__diode_2
XPHY_1548 VGND VPWR sky130_fd_sc_hd__tapvpwrvgnd_1
XPHY_1559 VGND VPWR sky130_fd_sc_hd__tapvpwrvgnd_1
X_25203_ _25204_/CLK _14241_/X HRESETn VGND VGND VPWR VPWR _25203_/Q sky130_fd_sc_hd__dfstp_4
XFILLER_10_147 VGND VGND VPWR VPWR sky130_fd_sc_hd__fill_1
X_22415_ _25532_/Q _22411_/X _21042_/X _22414_/X VGND VGND VPWR VPWR _22415_/X sky130_fd_sc_hd__a211o_4
XFILLER_195_27 VGND VGND VPWR VPWR sky130_fd_sc_hd__decap_12
X_23395_ _23395_/CLK _20421_/X VGND VGND VPWR VPWR _23395_/Q sky130_fd_sc_hd__dfxtp_4
XANTENNA__25279__RESET_B HRESETn VGND VGND VPWR VPWR sky130_fd_sc_hd__diode_2
X_25134_ _25148_/CLK _25134_/D HRESETn VGND VGND VPWR VPWR _14103_/A sky130_fd_sc_hd__dfrtp_4
XFILLER_128_32 VGND VGND VPWR VPWR sky130_fd_sc_hd__decap_12
X_22346_ _21941_/A _22346_/B VGND VGND VPWR VPWR _22348_/B sky130_fd_sc_hd__or2_4
XANTENNA__16702__B1 _15761_/X VGND VGND VPWR VPWR sky130_fd_sc_hd__diode_2
XFILLER_3_803 VGND VGND VPWR VPWR sky130_fd_sc_hd__decap_12
XANTENNA__25208__RESET_B HRESETn VGND VGND VPWR VPWR sky130_fd_sc_hd__diode_2
XFILLER_163_174 VGND VGND VPWR VPWR sky130_fd_sc_hd__fill_1
X_22277_ _22277_/A VGND VGND VPWR VPWR _22277_/Y sky130_fd_sc_hd__inv_2
X_25065_ _24258_/CLK _14784_/X HRESETn VGND VGND VPWR VPWR _25065_/Q sky130_fd_sc_hd__dfrtp_4
XANTENNA__23043__A3 _22291_/B VGND VGND VPWR VPWR sky130_fd_sc_hd__diode_2
X_12030_ _12030_/A VGND VGND VPWR VPWR _12030_/Y sky130_fd_sc_hd__inv_2
XFILLER_151_347 VGND VGND VPWR VPWR sky130_fd_sc_hd__decap_12
X_21228_ _15650_/X VGND VGND VPWR VPWR _22808_/A sky130_fd_sc_hd__buf_2
X_24016_ _24015_/CLK _20703_/Y HRESETn VGND VGND VPWR VPWR _13131_/A sky130_fd_sc_hd__dfrtp_4
XANTENNA__18455__B1 _16271_/Y VGND VGND VPWR VPWR sky130_fd_sc_hd__diode_2
XANTENNA__15728__A1_N _12555_/Y VGND VGND VPWR VPWR sky130_fd_sc_hd__diode_2
X_21159_ _21158_/Y _21353_/A _14890_/Y _14442_/A VGND VGND VPWR VPWR _21164_/B sky130_fd_sc_hd__o22a_4
XFILLER_120_778 VGND VGND VPWR VPWR sky130_fd_sc_hd__fill_1
X_13981_ scl_oen_o_S5 _13975_/X _13976_/Y _13980_/Y VGND VGND VPWR VPWR _13982_/B
+ sky130_fd_sc_hd__o22a_4
XFILLER_77_169 VGND VGND VPWR VPWR sky130_fd_sc_hd__decap_12
XFILLER_218_131 VGND VGND VPWR VPWR sky130_fd_sc_hd__decap_3
X_15720_ _15719_/X VGND VGND VPWR VPWR _15720_/X sky130_fd_sc_hd__buf_2
XANTENNA__22554__A2 _22677_/B VGND VGND VPWR VPWR sky130_fd_sc_hd__diode_2
X_12932_ _12931_/X VGND VGND VPWR VPWR _25389_/D sky130_fd_sc_hd__inv_2
X_24918_ _24915_/CLK _24918_/D HRESETn VGND VGND VPWR VPWR _24918_/Q sky130_fd_sc_hd__dfrtp_4
XFILLER_246_462 VGND VGND VPWR VPWR sky130_fd_sc_hd__decap_8
XFILLER_58_394 VGND VGND VPWR VPWR sky130_fd_sc_hd__decap_3
XANTENNA__16769__B1 _15748_/X VGND VGND VPWR VPWR sky130_fd_sc_hd__diode_2
XANTENNA__24843__RESET_B HRESETn VGND VGND VPWR VPWR sky130_fd_sc_hd__diode_2
XFILLER_160_30 VGND VGND VPWR VPWR sky130_fd_sc_hd__fill_1
XFILLER_207_849 VGND VGND VPWR VPWR sky130_fd_sc_hd__fill_1
X_15651_ _14386_/A _15650_/X VGND VGND VPWR VPWR _15651_/X sky130_fd_sc_hd__or2_4
XFILLER_218_197 VGND VGND VPWR VPWR sky130_fd_sc_hd__decap_3
X_12863_ _12765_/Y _12862_/X VGND VGND VPWR VPWR _12863_/X sky130_fd_sc_hd__or2_4
X_24849_ _24849_/CLK _24849_/D HRESETn VGND VGND VPWR VPWR _24849_/Q sky130_fd_sc_hd__dfrtp_4
XFILLER_233_123 VGND VGND VPWR VPWR sky130_fd_sc_hd__decap_4
XPHY_4130 VGND VPWR sky130_fd_sc_hd__tapvpwrvgnd_1
XANTENNA__19707__B1 _19560_/X VGND VGND VPWR VPWR sky130_fd_sc_hd__diode_2
XPHY_4141 VGND VPWR sky130_fd_sc_hd__tapvpwrvgnd_1
X_14602_ _14577_/X _14595_/X _14601_/Y _14599_/X _25097_/Q VGND VGND VPWR VPWR _14602_/X
+ sky130_fd_sc_hd__a32o_4
XPHY_4152 VGND VPWR sky130_fd_sc_hd__tapvpwrvgnd_1
X_11814_ _11803_/X VGND VGND VPWR VPWR _11814_/X sky130_fd_sc_hd__buf_2
X_18370_ _18370_/A _18360_/Y VGND VGND VPWR VPWR _18370_/Y sky130_fd_sc_hd__nor2_4
XFILLER_33_228 VGND VGND VPWR VPWR sky130_fd_sc_hd__decap_6
XPHY_4163 VGND VPWR sky130_fd_sc_hd__tapvpwrvgnd_1
X_15582_ _15581_/Y _15577_/X _11770_/X _15577_/X VGND VGND VPWR VPWR _15582_/X sky130_fd_sc_hd__a2bb2o_4
XFILLER_61_548 VGND VGND VPWR VPWR sky130_fd_sc_hd__fill_1
XANTENNA__15992__A1 _15797_/X VGND VGND VPWR VPWR sky130_fd_sc_hd__diode_2
XPHY_4174 VGND VPWR sky130_fd_sc_hd__tapvpwrvgnd_1
X_12794_ _22490_/A VGND VGND VPWR VPWR _12794_/Y sky130_fd_sc_hd__inv_2
XPHY_4185 VGND VPWR sky130_fd_sc_hd__tapvpwrvgnd_1
XPHY_3440 VGND VPWR sky130_fd_sc_hd__tapvpwrvgnd_1
XPHY_3451 VGND VPWR sky130_fd_sc_hd__tapvpwrvgnd_1
X_17321_ _17186_/A _17321_/B VGND VGND VPWR VPWR _17321_/X sky130_fd_sc_hd__or2_4
XPHY_4196 VGND VPWR sky130_fd_sc_hd__tapvpwrvgnd_1
X_14533_ _25111_/Q _14520_/X _25110_/Q _14522_/X VGND VGND VPWR VPWR _14533_/X sky130_fd_sc_hd__o22a_4
XPHY_3462 VGND VPWR sky130_fd_sc_hd__tapvpwrvgnd_1
X_11745_ _11744_/X VGND VGND VPWR VPWR _22575_/A sky130_fd_sc_hd__buf_2
XFILLER_159_425 VGND VGND VPWR VPWR sky130_fd_sc_hd__fill_2
XPHY_3473 VGND VPWR sky130_fd_sc_hd__tapvpwrvgnd_1
XANTENNA__17194__B1 _16354_/Y VGND VGND VPWR VPWR sky130_fd_sc_hd__diode_2
XPHY_3484 VGND VPWR sky130_fd_sc_hd__tapvpwrvgnd_1
XPHY_3495 VGND VPWR sky130_fd_sc_hd__tapvpwrvgnd_1
XPHY_2750 VGND VPWR sky130_fd_sc_hd__tapvpwrvgnd_1
XPHY_2761 VGND VPWR sky130_fd_sc_hd__tapvpwrvgnd_1
X_17252_ _17362_/A _17358_/C _17357_/A _17252_/D VGND VGND VPWR VPWR _17252_/X sky130_fd_sc_hd__or4_4
XFILLER_159_458 VGND VGND VPWR VPWR sky130_fd_sc_hd__decap_4