* NGSPICE file created from DMC_32x16HC.ext - technology: sky130A

* Black-box entry subcircuit for sky130_fd_sc_hd__ebufn_2 abstract view
.subckt sky130_fd_sc_hd__ebufn_2 A TE_B VGND VNB VPB VPWR Z
.ends

* Black-box entry subcircuit for sky130_fd_sc_hd__diode_2 abstract view
.subckt sky130_fd_sc_hd__diode_2 DIODE VGND VNB VPB VPWR
.ends

* Black-box entry subcircuit for sky130_fd_sc_hd__dfxtp_1 abstract view
.subckt sky130_fd_sc_hd__dfxtp_1 CLK D VGND VNB VPB VPWR Q
.ends

* Black-box entry subcircuit for sky130_fd_sc_hd__fill_1 abstract view
.subckt sky130_fd_sc_hd__fill_1 VGND VNB VPB VPWR
.ends

* Black-box entry subcircuit for sky130_fd_sc_hd__tapvpwrvgnd_1 abstract view
.subckt sky130_fd_sc_hd__tapvpwrvgnd_1 VGND VPWR
.ends

* Black-box entry subcircuit for sky130_fd_sc_hd__fill_2 abstract view
.subckt sky130_fd_sc_hd__fill_2 VGND VNB VPB VPWR
.ends

* Black-box entry subcircuit for sky130_fd_sc_hd__decap_12 abstract view
.subckt sky130_fd_sc_hd__decap_12 VGND VNB VPB VPWR
.ends

* Black-box entry subcircuit for sky130_fd_sc_hd__dlclkp_1 abstract view
.subckt sky130_fd_sc_hd__dlclkp_1 CLK GATE VGND VNB VPB VPWR GCLK
.ends

* Black-box entry subcircuit for sky130_fd_sc_hd__decap_3 abstract view
.subckt sky130_fd_sc_hd__decap_3 VGND VNB VPB VPWR
.ends

* Black-box entry subcircuit for sky130_fd_sc_hd__decap_4 abstract view
.subckt sky130_fd_sc_hd__decap_4 VGND VNB VPB VPWR
.ends

* Black-box entry subcircuit for sky130_fd_sc_hd__and2_1 abstract view
.subckt sky130_fd_sc_hd__and2_1 A B VGND VNB VPB VPWR X
.ends

* Black-box entry subcircuit for sky130_fd_sc_hd__decap_6 abstract view
.subckt sky130_fd_sc_hd__decap_6 VGND VNB VPB VPWR
.ends

* Black-box entry subcircuit for sky130_fd_sc_hd__and2_4 abstract view
.subckt sky130_fd_sc_hd__and2_4 A B VGND VNB VPB VPWR X
.ends

* Black-box entry subcircuit for sky130_fd_sc_hd__inv_2 abstract view
.subckt sky130_fd_sc_hd__inv_2 A VGND VNB VPB VPWR Y
.ends

* Black-box entry subcircuit for sky130_fd_sc_hd__decap_8 abstract view
.subckt sky130_fd_sc_hd__decap_8 VGND VNB VPB VPWR
.ends

* Black-box entry subcircuit for sky130_fd_sc_hd__clkbuf_2 abstract view
.subckt sky130_fd_sc_hd__clkbuf_2 A VGND VNB VPB VPWR X
.ends

* Black-box entry subcircuit for sky130_fd_sc_hd__and4b_4 abstract view
.subckt sky130_fd_sc_hd__and4b_4 A_N B C D VGND VNB VPB VPWR X
.ends

* Black-box entry subcircuit for sky130_fd_sc_hd__dfrtp_1 abstract view
.subckt sky130_fd_sc_hd__dfrtp_1 CLK D RESET_B VGND VNB VPB VPWR Q
.ends

* Black-box entry subcircuit for sky130_fd_sc_hd__clkbuf_4 abstract view
.subckt sky130_fd_sc_hd__clkbuf_4 A VGND VNB VPB VPWR X
.ends

* Black-box entry subcircuit for sky130_fd_sc_hd__mux4_1 abstract view
.subckt sky130_fd_sc_hd__mux4_1 A0 A1 A2 A3 S0 S1 VGND VNB VPB VPWR X
.ends

* Black-box entry subcircuit for sky130_fd_sc_hd__and4bb_4 abstract view
.subckt sky130_fd_sc_hd__and4bb_4 A_N B_N C D VGND VNB VPB VPWR X
.ends

* Black-box entry subcircuit for sky130_fd_sc_hd__and4_4 abstract view
.subckt sky130_fd_sc_hd__and4_4 A B C D VGND VNB VPB VPWR X
.ends

* Black-box entry subcircuit for sky130_fd_sc_hd__a2bb2o_4 abstract view
.subckt sky130_fd_sc_hd__a2bb2o_4 A1_N A2_N B1 B2 VGND VNB VPB VPWR X
.ends

* Black-box entry subcircuit for sky130_fd_sc_hd__nor4b_4 abstract view
.subckt sky130_fd_sc_hd__nor4b_4 A B C D_N VGND VNB VPB VPWR Y
.ends

* Black-box entry subcircuit for sky130_fd_sc_hd__o22a_4 abstract view
.subckt sky130_fd_sc_hd__o22a_4 A1 A2 B1 B2 VGND VNB VPB VPWR X
.ends

* Black-box entry subcircuit for sky130_fd_sc_hd__conb_1 abstract view
.subckt sky130_fd_sc_hd__conb_1 VGND VNB VPB VPWR HI LO
.ends

* Black-box entry subcircuit for sky130_fd_sc_hd__nor2_2 abstract view
.subckt sky130_fd_sc_hd__nor2_2 A B VGND VNB VPB VPWR Y
.ends

* Black-box entry subcircuit for sky130_fd_sc_hd__a22oi_4 abstract view
.subckt sky130_fd_sc_hd__a22oi_4 A1 A2 B1 B2 VGND VNB VPB VPWR Y
.ends

* Black-box entry subcircuit for sky130_fd_sc_hd__and2b_2 abstract view
.subckt sky130_fd_sc_hd__and2b_2 A_N B VGND VNB VPB VPWR X
.ends

* Black-box entry subcircuit for sky130_fd_sc_hd__o21a_4 abstract view
.subckt sky130_fd_sc_hd__o21a_4 A1 A2 B1 VGND VNB VPB VPWR X
.ends

* Black-box entry subcircuit for sky130_fd_sc_hd__and2_2 abstract view
.subckt sky130_fd_sc_hd__and2_2 A B VGND VNB VPB VPWR X
.ends

* Black-box entry subcircuit for sky130_fd_sc_hd__or4_4 abstract view
.subckt sky130_fd_sc_hd__or4_4 A B C D VGND VNB VPB VPWR X
.ends

.subckt DMC_32x16HC A[0] A[10] A[11] A[12] A[13] A[14] A[15] A[16] A[17] A[18] A[19]
+ A[1] A[20] A[21] A[22] A[23] A[2] A[3] A[4] A[5] A[6] A[7] A[8] A[9] A_h[0] A_h[10]
+ A_h[11] A_h[12] A_h[13] A_h[14] A_h[15] A_h[16] A_h[17] A_h[18] A_h[19] A_h[1] A_h[20]
+ A_h[21] A_h[22] A_h[23] A_h[2] A_h[3] A_h[4] A_h[5] A_h[6] A_h[7] A_h[8] A_h[9]
+ Do[0] Do[10] Do[11] Do[12] Do[13] Do[14] Do[15] Do[16] Do[17] Do[18] Do[19] Do[1]
+ Do[20] Do[21] Do[22] Do[23] Do[24] Do[25] Do[26] Do[27] Do[28] Do[29] Do[2] Do[30]
+ Do[31] Do[3] Do[4] Do[5] Do[6] Do[7] Do[8] Do[9] clk hit line[0] line[100] line[101]
+ line[102] line[103] line[104] line[105] line[106] line[107] line[108] line[109]
+ line[10] line[110] line[111] line[112] line[113] line[114] line[115] line[116] line[117]
+ line[118] line[119] line[11] line[120] line[121] line[122] line[123] line[124] line[125]
+ line[126] line[127] line[12] line[13] line[14] line[15] line[16] line[17] line[18]
+ line[19] line[1] line[20] line[21] line[22] line[23] line[24] line[25] line[26]
+ line[27] line[28] line[29] line[2] line[30] line[31] line[32] line[33] line[34]
+ line[35] line[36] line[37] line[38] line[39] line[3] line[40] line[41] line[42]
+ line[43] line[44] line[45] line[46] line[47] line[48] line[49] line[4] line[50]
+ line[51] line[52] line[53] line[54] line[55] line[56] line[57] line[58] line[59]
+ line[5] line[60] line[61] line[62] line[63] line[64] line[65] line[66] line[67]
+ line[68] line[69] line[6] line[70] line[71] line[72] line[73] line[74] line[75]
+ line[76] line[77] line[78] line[79] line[7] line[80] line[81] line[82] line[83]
+ line[84] line[85] line[86] line[87] line[88] line[89] line[8] line[90] line[91]
+ line[92] line[93] line[94] line[95] line[96] line[97] line[98] line[99] line[9]
+ rst_n wr VPWR VGND
XOVHB\[16\].VALID\[10\].TOBUF OVHB\[16\].VALID\[10\].FF/Q OVHB\[16\].INV/Y VGND VGND
+ VPWR VPWR _04934_/B2 sky130_fd_sc_hd__ebufn_2
XANTENNA__09515__D line[37] VGND VGND VPWR VPWR sky130_fd_sc_hd__diode_2
X_05903_ _05902_/Q _05922_/Y VGND VGND VPWR VPWR _13463_/Z sky130_fd_sc_hd__ebufn_2
X_06883_ _06883_/A _06902_/Y VGND VGND VPWR VPWR _12763_/Z sky130_fd_sc_hd__ebufn_2
X_09671_ _09670_/Q _09702_/Y VGND VGND VPWR VPWR _09671_/Z sky130_fd_sc_hd__ebufn_2
X_05834_ _05840_/CLK line[18] VGND VGND VPWR VPWR _05835_/A sky130_fd_sc_hd__dfxtp_1
XFILLER_27_428 VGND VGND VPWR VPWR sky130_fd_sc_hd__fill_1
X_08622_ _08630_/CLK line[27] VGND VGND VPWR VPWR _08622_/Q sky130_fd_sc_hd__dfxtp_1
X_05765_ _05764_/Q _05782_/Y VGND VGND VPWR VPWR _09405_/Z sky130_fd_sc_hd__ebufn_2
XPHY_3109 VGND VPWR sky130_fd_sc_hd__tapvpwrvgnd_1
X_08553_ _08552_/Q _08582_/Y VGND VGND VPWR VPWR _07153_/Z sky130_fd_sc_hd__ebufn_2
XANTENNA__11780__D line[63] VGND VGND VPWR VPWR sky130_fd_sc_hd__diode_2
XANTENNA__06874__D line[124] VGND VGND VPWR VPWR sky130_fd_sc_hd__diode_2
X_07504_ _07510_/CLK line[28] VGND VGND VPWR VPWR _07505_/A sky130_fd_sc_hd__dfxtp_1
XFILLER_63_792 VGND VGND VPWR VPWR sky130_fd_sc_hd__fill_1
XPHY_2408 VGND VPWR sky130_fd_sc_hd__tapvpwrvgnd_1
X_08484_ _08492_/CLK line[92] VGND VGND VPWR VPWR _08484_/Q sky130_fd_sc_hd__dfxtp_1
X_05696_ _05700_/CLK line[83] VGND VGND VPWR VPWR _05697_/A sky130_fd_sc_hd__dfxtp_1
XFILLER_23_634 VGND VGND VPWR VPWR sky130_fd_sc_hd__fill_2
XPHY_2419 VGND VPWR sky130_fd_sc_hd__tapvpwrvgnd_1
XANTENNA__09250__D line[58] VGND VGND VPWR VPWR sky130_fd_sc_hd__diode_2
XANTENNA__10396__D line[56] VGND VGND VPWR VPWR sky130_fd_sc_hd__diode_2
XPHY_1707 VGND VPWR sky130_fd_sc_hd__tapvpwrvgnd_1
X_07435_ _07435_/A _07462_/Y VGND VGND VPWR VPWR _11915_/Z sky130_fd_sc_hd__ebufn_2
XFILLER_211_757 VGND VGND VPWR VPWR sky130_fd_sc_hd__decap_12
XPHY_1718 VGND VPWR sky130_fd_sc_hd__tapvpwrvgnd_1
XPHY_1729 VGND VPWR sky130_fd_sc_hd__tapvpwrvgnd_1
X_07366_ _07384_/CLK line[93] VGND VGND VPWR VPWR _07367_/A sky130_fd_sc_hd__dfxtp_1
XANTENNA_OVHB\[9\].VALID\[9\].FF_D A[18] VGND VGND VPWR VPWR sky130_fd_sc_hd__diode_2
X_06317_ _06317_/A _06342_/Y VGND VGND VPWR VPWR _09677_/Z sky130_fd_sc_hd__ebufn_2
X_09105_ _09105_/CLK _09106_/X VGND VGND VPWR VPWR _09089_/CLK sky130_fd_sc_hd__dlclkp_1
XFILLER_148_374 VGND VGND VPWR VPWR sky130_fd_sc_hd__decap_3
XFILLER_163_300 VGND VGND VPWR VPWR sky130_fd_sc_hd__decap_4
X_07297_ _07296_/Q _07322_/Y VGND VGND VPWR VPWR _10097_/Z sky130_fd_sc_hd__ebufn_2
XFILLER_163_322 VGND VGND VPWR VPWR sky130_fd_sc_hd__fill_1
X_09036_ _09142_/A wr VGND VGND VPWR VPWR _09036_/X sky130_fd_sc_hd__and2_1
X_06248_ _06260_/CLK line[94] VGND VGND VPWR VPWR _06248_/Q sky130_fd_sc_hd__dfxtp_1
XFILLER_124_709 VGND VGND VPWR VPWR sky130_fd_sc_hd__fill_1
X_06179_ _06178_/Q _06202_/Y VGND VGND VPWR VPWR _10099_/Z sky130_fd_sc_hd__ebufn_2
XANTENNA_DATA\[27\].CLKBUF\[2\]_A clk VGND VGND VPWR VPWR sky130_fd_sc_hd__diode_2
XANTENNA__11020__D line[85] VGND VGND VPWR VPWR sky130_fd_sc_hd__diode_2
XFILLER_77_15 VGND VGND VPWR VPWR sky130_fd_sc_hd__decap_12
XANTENNA__06114__D line[18] VGND VGND VPWR VPWR sky130_fd_sc_hd__diode_2
XANTENNA__11955__D line[15] VGND VGND VPWR VPWR sky130_fd_sc_hd__diode_2
XFILLER_131_263 VGND VGND VPWR VPWR sky130_fd_sc_hd__fill_1
XFILLER_77_59 VGND VGND VPWR VPWR sky130_fd_sc_hd__fill_2
XANTENNA__04929__A1_N A_h[12] VGND VGND VPWR VPWR sky130_fd_sc_hd__diode_2
X_09938_ _09937_/Q _09947_/Y VGND VGND VPWR VPWR _09658_/Z sky130_fd_sc_hd__ebufn_2
XANTENNA__06411__B wr VGND VGND VPWR VPWR sky130_fd_sc_hd__diode_2
XANTENNA__05953__D line[73] VGND VGND VPWR VPWR sky130_fd_sc_hd__diode_2
XANTENNA__09425__D line[10] VGND VGND VPWR VPWR sky130_fd_sc_hd__diode_2
X_09869_ _09859_/CLK line[71] VGND VGND VPWR VPWR _09869_/Q sky130_fd_sc_hd__dfxtp_1
XFILLER_100_683 VGND VGND VPWR VPWR sky130_fd_sc_hd__fill_1
XFILLER_45_203 VGND VGND VPWR VPWR sky130_fd_sc_hd__decap_12
X_11900_ _11899_/Q _11907_/Y VGND VGND VPWR VPWR _10220_/Z sky130_fd_sc_hd__ebufn_2
X_12880_ _12879_/Q _12887_/Y VGND VGND VPWR VPWR _12040_/Z sky130_fd_sc_hd__ebufn_2
XFILLER_172_3 VGND VGND VPWR VPWR sky130_fd_sc_hd__decap_12
X_11831_ _11829_/CLK line[72] VGND VGND VPWR VPWR _11832_/A sky130_fd_sc_hd__dfxtp_1
XFILLER_199_731 VGND VGND VPWR VPWR sky130_fd_sc_hd__fill_1
XFILLER_54_781 VGND VGND VPWR VPWR sky130_fd_sc_hd__decap_3
X_11762_ _11761_/Q _11767_/Y VGND VGND VPWR VPWR _09242_/Z sky130_fd_sc_hd__ebufn_2
XPHY_2920 VGND VPWR sky130_fd_sc_hd__tapvpwrvgnd_1
XPHY_2931 VGND VPWR sky130_fd_sc_hd__tapvpwrvgnd_1
X_13501_ _13511_/CLK line[67] VGND VGND VPWR VPWR _13502_/A sky130_fd_sc_hd__dfxtp_1
XFILLER_201_212 VGND VGND VPWR VPWR sky130_fd_sc_hd__decap_4
XPHY_2942 VGND VPWR sky130_fd_sc_hd__tapvpwrvgnd_1
X_10713_ _10695_/CLK line[73] VGND VGND VPWR VPWR _10713_/Q sky130_fd_sc_hd__dfxtp_1
XFILLER_198_285 VGND VGND VPWR VPWR sky130_fd_sc_hd__fill_1
XANTENNA_OVHB\[9\].VALID\[11\].FF_D A[20] VGND VGND VPWR VPWR sky130_fd_sc_hd__diode_2
XPHY_2953 VGND VPWR sky130_fd_sc_hd__tapvpwrvgnd_1
X_11693_ _11675_/CLK line[9] VGND VGND VPWR VPWR _11693_/Q sky130_fd_sc_hd__dfxtp_1
XFILLER_201_245 VGND VGND VPWR VPWR sky130_fd_sc_hd__decap_6
XPHY_2964 VGND VPWR sky130_fd_sc_hd__tapvpwrvgnd_1
XPHY_2975 VGND VPWR sky130_fd_sc_hd__tapvpwrvgnd_1
XPHY_2986 VGND VPWR sky130_fd_sc_hd__tapvpwrvgnd_1
X_13432_ _13431_/Q _13447_/Y VGND VGND VPWR VPWR _13432_/Z sky130_fd_sc_hd__ebufn_2
XPHY_2997 VGND VPWR sky130_fd_sc_hd__tapvpwrvgnd_1
X_10644_ _10644_/A _10647_/Y VGND VGND VPWR VPWR _09524_/Z sky130_fd_sc_hd__ebufn_2
XFILLER_139_341 VGND VGND VPWR VPWR sky130_fd_sc_hd__fill_1
XFILLER_155_812 VGND VGND VPWR VPWR sky130_fd_sc_hd__decap_3
X_13363_ _13367_/CLK line[4] VGND VGND VPWR VPWR _13364_/A sky130_fd_sc_hd__dfxtp_1
X_10575_ _10575_/CLK _10576_/X VGND VGND VPWR VPWR _10573_/CLK sky130_fd_sc_hd__dlclkp_1
X_12314_ _12313_/Q _12327_/Y VGND VGND VPWR VPWR _12034_/Z sky130_fd_sc_hd__ebufn_2
XANTENNA__08504__D line[87] VGND VGND VPWR VPWR sky130_fd_sc_hd__diode_2
X_13294_ _13293_/Q _13307_/Y VGND VGND VPWR VPWR _13574_/Z sky130_fd_sc_hd__ebufn_2
X_12245_ _12251_/CLK line[5] VGND VGND VPWR VPWR _12246_/A sky130_fd_sc_hd__dfxtp_1
X_12176_ _12176_/A _12187_/Y VGND VGND VPWR VPWR _13576_/Z sky130_fd_sc_hd__ebufn_2
XFILLER_122_274 VGND VGND VPWR VPWR sky130_fd_sc_hd__fill_1
XANTENNA_DATA\[0\].CLKBUF\[1\]_A clk VGND VGND VPWR VPWR sky130_fd_sc_hd__diode_2
X_11127_ _11127_/CLK line[6] VGND VGND VPWR VPWR _11127_/Q sky130_fd_sc_hd__dfxtp_1
XANTENNA__05863__D line[46] VGND VGND VPWR VPWR sky130_fd_sc_hd__diode_2
X_11058_ _11058_/A _11067_/Y VGND VGND VPWR VPWR _09658_/Z sky130_fd_sc_hd__ebufn_2
XFILLER_49_564 VGND VGND VPWR VPWR sky130_fd_sc_hd__decap_3
XFILLER_190_60 VGND VGND VPWR VPWR sky130_fd_sc_hd__fill_1
XFILLER_209_356 VGND VGND VPWR VPWR sky130_fd_sc_hd__fill_1
X_10009_ _10007_/CLK line[7] VGND VGND VPWR VPWR _10009_/Q sky130_fd_sc_hd__dfxtp_1
XFILLER_36_236 VGND VGND VPWR VPWR sky130_fd_sc_hd__fill_2
XANTENNA__12696__D line[83] VGND VGND VPWR VPWR sky130_fd_sc_hd__diode_2
XOVHB\[22\].CGAND _09142_/A wr VGND VGND VPWR VPWR OVHB\[22\].CGAND/X sky130_fd_sc_hd__and2_4
X_05550_ _05566_/CLK line[31] VGND VGND VPWR VPWR _05551_/A sky130_fd_sc_hd__dfxtp_1
XFILLER_45_792 VGND VGND VPWR VPWR sky130_fd_sc_hd__fill_1
XFILLER_60_751 VGND VGND VPWR VPWR sky130_fd_sc_hd__decap_12
X_05481_ _05480_/Q _05502_/Y VGND VGND VPWR VPWR _11921_/Z sky130_fd_sc_hd__ebufn_2
XFILLER_177_425 VGND VGND VPWR VPWR sky130_fd_sc_hd__fill_2
XFILLER_60_773 VGND VGND VPWR VPWR sky130_fd_sc_hd__fill_2
XANTENNA__11105__D line[10] VGND VGND VPWR VPWR sky130_fd_sc_hd__diode_2
X_07220_ _07246_/CLK line[26] VGND VGND VPWR VPWR _07220_/Q sky130_fd_sc_hd__dfxtp_1
XFILLER_20_648 VGND VGND VPWR VPWR sky130_fd_sc_hd__fill_2
XANTENNA__05103__D line[68] VGND VGND VPWR VPWR sky130_fd_sc_hd__diode_2
X_07151_ _07151_/A _07182_/Y VGND VGND VPWR VPWR _09671_/Z sky130_fd_sc_hd__ebufn_2
XFILLER_146_823 VGND VGND VPWR VPWR sky130_fd_sc_hd__fill_1
XANTENNA__10944__D line[50] VGND VGND VPWR VPWR sky130_fd_sc_hd__diode_2
XFILLER_185_491 VGND VGND VPWR VPWR sky130_fd_sc_hd__decap_3
XANTENNA__13320__D line[127] VGND VGND VPWR VPWR sky130_fd_sc_hd__diode_2
X_06102_ _06104_/CLK line[27] VGND VGND VPWR VPWR _06102_/Q sky130_fd_sc_hd__dfxtp_1
X_07082_ _07088_/CLK line[91] VGND VGND VPWR VPWR _07082_/Q sky130_fd_sc_hd__dfxtp_1
XANTENNA__08414__D line[60] VGND VGND VPWR VPWR sky130_fd_sc_hd__diode_2
XFILLER_173_686 VGND VGND VPWR VPWR sky130_fd_sc_hd__decap_3
X_06033_ _06032_/Q _06062_/Y VGND VGND VPWR VPWR _07153_/Z sky130_fd_sc_hd__ebufn_2
XOVHB\[18\].VALID\[4\].TOBUF OVHB\[18\].VALID\[4\].FF/Q OVHB\[18\].INV/Y VGND VGND
+ VPWR VPWR _04939_/B2 sky130_fd_sc_hd__ebufn_2
XANTENNA_MUX.MUX\[1\]_S1 A[3] VGND VGND VPWR VPWR sky130_fd_sc_hd__diode_2
XFILLER_114_764 VGND VGND VPWR VPWR sky130_fd_sc_hd__fill_2
XFILLER_101_425 VGND VGND VPWR VPWR sky130_fd_sc_hd__fill_2
X_07984_ _07983_/Q _07987_/Y VGND VGND VPWR VPWR _09664_/Z sky130_fd_sc_hd__ebufn_2
XFILLER_68_840 VGND VGND VPWR VPWR sky130_fd_sc_hd__fill_2
XFILLER_86_147 VGND VGND VPWR VPWR sky130_fd_sc_hd__fill_1
X_09723_ _09727_/CLK line[4] VGND VGND VPWR VPWR _09724_/A sky130_fd_sc_hd__dfxtp_1
X_06935_ _06935_/CLK _06936_/X VGND VGND VPWR VPWR _06909_/CLK sky130_fd_sc_hd__dlclkp_1
XFILLER_95_681 VGND VGND VPWR VPWR sky130_fd_sc_hd__fill_1
X_09654_ _09654_/A _09667_/Y VGND VGND VPWR VPWR _13574_/Z sky130_fd_sc_hd__ebufn_2
X_06866_ _06902_/A wr VGND VGND VPWR VPWR _06866_/X sky130_fd_sc_hd__and2_1
X_08605_ _08593_/CLK line[5] VGND VGND VPWR VPWR _08605_/Q sky130_fd_sc_hd__dfxtp_1
X_05817_ _13910_/X VGND VGND VPWR VPWR _05817_/Y sky130_fd_sc_hd__inv_2
X_06797_ _06902_/A VGND VGND VPWR VPWR _06797_/Y sky130_fd_sc_hd__inv_2
X_09585_ _09587_/CLK line[69] VGND VGND VPWR VPWR _09585_/Q sky130_fd_sc_hd__dfxtp_1
XFILLER_63_39 VGND VGND VPWR VPWR sky130_fd_sc_hd__decap_12
XFILLER_36_781 VGND VGND VPWR VPWR sky130_fd_sc_hd__decap_8
X_05748_ _05770_/CLK line[112] VGND VGND VPWR VPWR _05749_/A sky130_fd_sc_hd__dfxtp_1
X_08536_ _08535_/Q _08547_/Y VGND VGND VPWR VPWR _13576_/Z sky130_fd_sc_hd__ebufn_2
XPHY_2205 VGND VPWR sky130_fd_sc_hd__tapvpwrvgnd_1
XPHY_905 VGND VPWR sky130_fd_sc_hd__tapvpwrvgnd_1
XFILLER_70_559 VGND VGND VPWR VPWR sky130_fd_sc_hd__decap_4
XFILLER_196_701 VGND VGND VPWR VPWR sky130_fd_sc_hd__fill_1
XFILLER_179_39 VGND VGND VPWR VPWR sky130_fd_sc_hd__decap_12
XPHY_2216 VGND VPWR sky130_fd_sc_hd__tapvpwrvgnd_1
XPHY_916 VGND VPWR sky130_fd_sc_hd__tapvpwrvgnd_1
XPHY_927 VGND VPWR sky130_fd_sc_hd__tapvpwrvgnd_1
XPHY_2227 VGND VPWR sky130_fd_sc_hd__tapvpwrvgnd_1
XPHY_938 VGND VPWR sky130_fd_sc_hd__tapvpwrvgnd_1
XFILLER_23_453 VGND VGND VPWR VPWR sky130_fd_sc_hd__decap_4
XPHY_2238 VGND VPWR sky130_fd_sc_hd__tapvpwrvgnd_1
XPHY_949 VGND VPWR sky130_fd_sc_hd__tapvpwrvgnd_1
X_05679_ _05678_/Q _05712_/Y VGND VGND VPWR VPWR _11839_/Z sky130_fd_sc_hd__ebufn_2
XPHY_2249 VGND VPWR sky130_fd_sc_hd__tapvpwrvgnd_1
XPHY_1504 VGND VPWR sky130_fd_sc_hd__tapvpwrvgnd_1
X_08467_ _08469_/CLK line[70] VGND VGND VPWR VPWR _08467_/Q sky130_fd_sc_hd__dfxtp_1
XFILLER_11_615 VGND VGND VPWR VPWR sky130_fd_sc_hd__fill_1
XPHY_1515 VGND VPWR sky130_fd_sc_hd__tapvpwrvgnd_1
XFILLER_211_554 VGND VGND VPWR VPWR sky130_fd_sc_hd__decap_4
XPHY_1526 VGND VPWR sky130_fd_sc_hd__tapvpwrvgnd_1
XPHY_1537 VGND VPWR sky130_fd_sc_hd__tapvpwrvgnd_1
X_07418_ _07418_/A _07427_/Y VGND VGND VPWR VPWR _09658_/Z sky130_fd_sc_hd__ebufn_2
XPHY_1548 VGND VPWR sky130_fd_sc_hd__tapvpwrvgnd_1
X_08398_ _08398_/A _08407_/Y VGND VGND VPWR VPWR _12038_/Z sky130_fd_sc_hd__ebufn_2
XANTENNA__05013__D line[32] VGND VGND VPWR VPWR sky130_fd_sc_hd__diode_2
XPHY_1559 VGND VPWR sky130_fd_sc_hd__tapvpwrvgnd_1
XFILLER_155_119 VGND VGND VPWR VPWR sky130_fd_sc_hd__decap_3
XFILLER_109_514 VGND VGND VPWR VPWR sky130_fd_sc_hd__fill_2
XFILLER_195_27 VGND VGND VPWR VPWR sky130_fd_sc_hd__decap_12
X_07349_ _07345_/CLK line[71] VGND VGND VPWR VPWR _07350_/A sky130_fd_sc_hd__dfxtp_1
XOVHB\[9\].VALID\[9\].FF OVHB\[9\].V/CLK A[18] VGND VGND VPWR VPWR OVHB\[9\].VALID\[9\].FF/Q
+ sky130_fd_sc_hd__dfxtp_1
XFILLER_164_620 VGND VGND VPWR VPWR sky130_fd_sc_hd__decap_6
XFILLER_12_32 VGND VGND VPWR VPWR sky130_fd_sc_hd__decap_12
XFILLER_128_32 VGND VGND VPWR VPWR sky130_fd_sc_hd__decap_12
X_10360_ _10360_/A _10367_/Y VGND VGND VPWR VPWR _12040_/Z sky130_fd_sc_hd__ebufn_2
XFILLER_12_76 VGND VGND VPWR VPWR sky130_fd_sc_hd__fill_2
XFILLER_164_675 VGND VGND VPWR VPWR sky130_fd_sc_hd__fill_1
X_09019_ _09025_/CLK line[66] VGND VGND VPWR VPWR _09019_/Q sky130_fd_sc_hd__dfxtp_1
X_10291_ _10287_/CLK line[8] VGND VGND VPWR VPWR _10292_/A sky130_fd_sc_hd__dfxtp_1
XFILLER_2_335 VGND VGND VPWR VPWR sky130_fd_sc_hd__fill_1
X_12030_ _12029_/Q _12047_/Y VGND VGND VPWR VPWR _12030_/Z sky130_fd_sc_hd__ebufn_2
XANTENNA__11685__D line[5] VGND VGND VPWR VPWR sky130_fd_sc_hd__diode_2
XFILLER_104_263 VGND VGND VPWR VPWR sky130_fd_sc_hd__decap_4
XFILLER_104_274 VGND VGND VPWR VPWR sky130_fd_sc_hd__fill_1
XANTENNA__06779__D line[66] VGND VGND VPWR VPWR sky130_fd_sc_hd__diode_2
XFILLER_104_296 VGND VGND VPWR VPWR sky130_fd_sc_hd__decap_8
XANTENNA__09155__D line[15] VGND VGND VPWR VPWR sky130_fd_sc_hd__diode_2
X_13981_ A_h[5] VGND VGND VPWR VPWR _13983_/B sky130_fd_sc_hd__clkbuf_2
XFILLER_19_726 VGND VGND VPWR VPWR sky130_fd_sc_hd__decap_4
XANTENNA_MUX.MUX\[9\]_A0 _10014_/Z VGND VGND VPWR VPWR sky130_fd_sc_hd__diode_2
XANTENNA_DATA\[25\].CLKBUF\[4\]_A clk VGND VGND VPWR VPWR sky130_fd_sc_hd__diode_2
XANTENNA__08994__D line[55] VGND VGND VPWR VPWR sky130_fd_sc_hd__diode_2
X_12932_ _12931_/Q _12957_/Y VGND VGND VPWR VPWR _12932_/Z sky130_fd_sc_hd__ebufn_2
XFILLER_37_51 VGND VGND VPWR VPWR sky130_fd_sc_hd__decap_8
XFILLER_19_748 VGND VGND VPWR VPWR sky130_fd_sc_hd__fill_1
XOVHB\[24\].VALID\[3\].TOBUF OVHB\[24\].VALID\[3\].FF/Q OVHB\[24\].INV/Y VGND VGND
+ VPWR VPWR _04927_/A sky130_fd_sc_hd__ebufn_2
XFILLER_37_62 VGND VGND VPWR VPWR sky130_fd_sc_hd__decap_12
X_12863_ _12861_/CLK line[46] VGND VGND VPWR VPWR _12863_/Q sky130_fd_sc_hd__dfxtp_1
XANTENNA_OVHB\[21\].VALID\[1\].FF_D A[10] VGND VGND VPWR VPWR sky130_fd_sc_hd__diode_2
XFILLER_27_792 VGND VGND VPWR VPWR sky130_fd_sc_hd__fill_1
X_11814_ _11814_/A _11837_/Y VGND VGND VPWR VPWR _12934_/Z sky130_fd_sc_hd__ebufn_2
XFILLER_199_550 VGND VGND VPWR VPWR sky130_fd_sc_hd__decap_4
X_12794_ _12794_/A _12817_/Y VGND VGND VPWR VPWR _06914_/Z sky130_fd_sc_hd__ebufn_2
XANTENNA__07403__D line[110] VGND VGND VPWR VPWR sky130_fd_sc_hd__diode_2
XFILLER_42_762 VGND VGND VPWR VPWR sky130_fd_sc_hd__fill_1
XFILLER_14_453 VGND VGND VPWR VPWR sky130_fd_sc_hd__decap_4
X_11745_ _11741_/CLK line[47] VGND VGND VPWR VPWR _11745_/Q sky130_fd_sc_hd__dfxtp_1
XPHY_2750 VGND VPWR sky130_fd_sc_hd__tapvpwrvgnd_1
XPHY_2761 VGND VPWR sky130_fd_sc_hd__tapvpwrvgnd_1
XFILLER_14_497 VGND VGND VPWR VPWR sky130_fd_sc_hd__decap_6
XANTENNA__06019__D line[103] VGND VGND VPWR VPWR sky130_fd_sc_hd__diode_2
XFILLER_202_576 VGND VGND VPWR VPWR sky130_fd_sc_hd__decap_4
XPHY_2772 VGND VPWR sky130_fd_sc_hd__tapvpwrvgnd_1
XPHY_2783 VGND VPWR sky130_fd_sc_hd__tapvpwrvgnd_1
X_11676_ _11675_/Q _11697_/Y VGND VGND VPWR VPWR _13356_/Z sky130_fd_sc_hd__ebufn_2
XPHY_2794 VGND VPWR sky130_fd_sc_hd__tapvpwrvgnd_1
XANTENNA__05501__A _13908_/X VGND VGND VPWR VPWR sky130_fd_sc_hd__diode_2
X_13415_ _13423_/CLK line[42] VGND VGND VPWR VPWR _13415_/Q sky130_fd_sc_hd__dfxtp_1
XFILLER_174_439 VGND VGND VPWR VPWR sky130_fd_sc_hd__decap_3
XANTENNA_OVHB\[14\].VALID\[5\].FF_D A[14] VGND VGND VPWR VPWR sky130_fd_sc_hd__diode_2
X_10627_ _10617_/CLK line[33] VGND VGND VPWR VPWR _10628_/A sky130_fd_sc_hd__dfxtp_1
X_13346_ _13345_/Q _13377_/Y VGND VGND VPWR VPWR _06906_/Z sky130_fd_sc_hd__ebufn_2
X_10558_ _10557_/Q _10577_/Y VGND VGND VPWR VPWR _06918_/Z sky130_fd_sc_hd__ebufn_2
XFILLER_115_528 VGND VGND VPWR VPWR sky130_fd_sc_hd__fill_2
X_13277_ _13295_/CLK line[107] VGND VGND VPWR VPWR _13277_/Q sky130_fd_sc_hd__dfxtp_1
XFILLER_5_184 VGND VGND VPWR VPWR sky130_fd_sc_hd__fill_1
X_10489_ _10499_/CLK line[98] VGND VGND VPWR VPWR _10489_/Q sky130_fd_sc_hd__dfxtp_1
XANTENNA_MUX.MUX\[24\]_A3 _11937_/Z VGND VGND VPWR VPWR sky130_fd_sc_hd__diode_2
X_12228_ _12228_/A _12257_/Y VGND VGND VPWR VPWR _06908_/Z sky130_fd_sc_hd__ebufn_2
XFILLER_123_550 VGND VGND VPWR VPWR sky130_fd_sc_hd__decap_6
XANTENNA__11595__D line[106] VGND VGND VPWR VPWR sky130_fd_sc_hd__diode_2
XFILLER_123_583 VGND VGND VPWR VPWR sky130_fd_sc_hd__fill_2
X_12159_ _12157_/CLK line[108] VGND VGND VPWR VPWR _12160_/A sky130_fd_sc_hd__dfxtp_1
XANTENNA__05593__D line[36] VGND VGND VPWR VPWR sky130_fd_sc_hd__diode_2
X_04981_ _04980_/Q _05012_/Y VGND VGND VPWR VPWR _06941_/Z sky130_fd_sc_hd__ebufn_2
XFILLER_111_789 VGND VGND VPWR VPWR sky130_fd_sc_hd__decap_4
XFILLER_77_670 VGND VGND VPWR VPWR sky130_fd_sc_hd__fill_1
XFILLER_49_361 VGND VGND VPWR VPWR sky130_fd_sc_hd__decap_4
X_06720_ _06719_/Q _06727_/Y VGND VGND VPWR VPWR _12040_/Z sky130_fd_sc_hd__ebufn_2
XFILLER_204_56 VGND VGND VPWR VPWR sky130_fd_sc_hd__decap_4
XFILLER_92_640 VGND VGND VPWR VPWR sky130_fd_sc_hd__fill_1
X_06651_ _06635_/CLK line[8] VGND VGND VPWR VPWR _06651_/Q sky130_fd_sc_hd__dfxtp_1
X_05602_ _05602_/A _05607_/Y VGND VGND VPWR VPWR _09242_/Z sky130_fd_sc_hd__ebufn_2
X_06582_ _06581_/Q _06587_/Y VGND VGND VPWR VPWR _12182_/Z sky130_fd_sc_hd__ebufn_2
X_09370_ _09369_/Q _09387_/Y VGND VGND VPWR VPWR _13570_/Z sky130_fd_sc_hd__ebufn_2
XOVHB\[16\].VALID\[9\].TOBUF OVHB\[16\].VALID\[9\].FF/Q OVHB\[16\].INV/Y VGND VGND
+ VPWR VPWR _04918_/B2 sky130_fd_sc_hd__ebufn_2
X_05533_ _05515_/CLK line[9] VGND VGND VPWR VPWR _05533_/Q sky130_fd_sc_hd__dfxtp_1
X_08321_ _08313_/CLK line[3] VGND VGND VPWR VPWR _08321_/Q sky130_fd_sc_hd__dfxtp_1
X_08252_ _08251_/Q _08267_/Y VGND VGND VPWR VPWR _09372_/Z sky130_fd_sc_hd__ebufn_2
X_05464_ _05464_/A _05467_/Y VGND VGND VPWR VPWR _09664_/Z sky130_fd_sc_hd__ebufn_2
XOVHB\[30\].VALID\[2\].TOBUF OVHB\[30\].VALID\[2\].FF/Q OVHB\[30\].INV/Y VGND VGND
+ VPWR VPWR _04932_/B2 sky130_fd_sc_hd__ebufn_2
X_07203_ _07193_/CLK line[4] VGND VGND VPWR VPWR _07203_/Q sky130_fd_sc_hd__dfxtp_1
XFILLER_137_108 VGND VGND VPWR VPWR sky130_fd_sc_hd__decap_4
XFILLER_193_726 VGND VGND VPWR VPWR sky130_fd_sc_hd__decap_6
XANTENNA__10674__D line[55] VGND VGND VPWR VPWR sky130_fd_sc_hd__diode_2
XANTENNA_OVHB\[20\].V_D TIE/HI VGND VGND VPWR VPWR sky130_fd_sc_hd__diode_2
X_08183_ _08173_/CLK line[68] VGND VGND VPWR VPWR _08183_/Q sky130_fd_sc_hd__dfxtp_1
X_05395_ _05395_/CLK _05396_/X VGND VGND VPWR VPWR _05387_/CLK sky130_fd_sc_hd__dlclkp_1
XANTENNA__13050__D line[117] VGND VGND VPWR VPWR sky130_fd_sc_hd__diode_2
XFILLER_146_642 VGND VGND VPWR VPWR sky130_fd_sc_hd__fill_1
XANTENNA__05768__D line[116] VGND VGND VPWR VPWR sky130_fd_sc_hd__diode_2
X_07134_ _07133_/Q _07147_/Y VGND VGND VPWR VPWR _13574_/Z sky130_fd_sc_hd__ebufn_2
XANTENNA__08144__D line[50] VGND VGND VPWR VPWR sky130_fd_sc_hd__diode_2
XFILLER_134_804 VGND VGND VPWR VPWR sky130_fd_sc_hd__fill_1
XOVHB\[18\].VALID\[1\].FF OVHB\[18\].V/CLK A[10] VGND VGND VPWR VPWR OVHB\[18\].VALID\[1\].FF/Q
+ sky130_fd_sc_hd__dfxtp_1
XANTENNA__08722__A _13922_/X VGND VGND VPWR VPWR sky130_fd_sc_hd__diode_2
X_07065_ _07055_/CLK line[69] VGND VGND VPWR VPWR _07066_/A sky130_fd_sc_hd__dfxtp_1
XFILLER_160_111 VGND VGND VPWR VPWR sky130_fd_sc_hd__fill_1
XANTENNA__08441__B wr VGND VGND VPWR VPWR sky130_fd_sc_hd__diode_2
XANTENNA__07983__D line[105] VGND VGND VPWR VPWR sky130_fd_sc_hd__diode_2
X_06016_ _06015_/Q _06027_/Y VGND VGND VPWR VPWR _13576_/Z sky130_fd_sc_hd__ebufn_2
XANTENNA_OVHB\[12\].CGAND_B wr VGND VGND VPWR VPWR sky130_fd_sc_hd__diode_2
XFILLER_59_114 VGND VGND VPWR VPWR sky130_fd_sc_hd__decap_8
XFILLER_75_607 VGND VGND VPWR VPWR sky130_fd_sc_hd__fill_1
X_07967_ _07983_/CLK line[97] VGND VGND VPWR VPWR _07967_/Q sky130_fd_sc_hd__dfxtp_1
XANTENNA_OVHB\[16\].CGAND_A _07112_/A VGND VGND VPWR VPWR sky130_fd_sc_hd__diode_2
XFILLER_114_56 VGND VGND VPWR VPWR sky130_fd_sc_hd__decap_6
X_09706_ _09706_/A _09737_/Y VGND VGND VPWR VPWR _06906_/Z sky130_fd_sc_hd__ebufn_2
X_06918_ _06918_/A _06937_/Y VGND VGND VPWR VPWR _06918_/Z sky130_fd_sc_hd__ebufn_2
XFILLER_74_27 VGND VGND VPWR VPWR sky130_fd_sc_hd__decap_4
XANTENNA__05008__D line[25] VGND VGND VPWR VPWR sky130_fd_sc_hd__diode_2
X_07898_ _07897_/Q _07917_/Y VGND VGND VPWR VPWR _07058_/Z sky130_fd_sc_hd__ebufn_2
XANTENNA__09703__D line[0] VGND VGND VPWR VPWR sky130_fd_sc_hd__diode_2
XFILLER_28_578 VGND VGND VPWR VPWR sky130_fd_sc_hd__fill_2
XANTENNA__10849__D line[7] VGND VGND VPWR VPWR sky130_fd_sc_hd__diode_2
X_09637_ _09643_/CLK line[107] VGND VGND VPWR VPWR _09637_/Q sky130_fd_sc_hd__dfxtp_1
X_06849_ _06861_/CLK line[98] VGND VGND VPWR VPWR _06850_/A sky130_fd_sc_hd__dfxtp_1
XFILLER_71_813 VGND VGND VPWR VPWR sky130_fd_sc_hd__decap_4
XFILLER_70_301 VGND VGND VPWR VPWR sky130_fd_sc_hd__fill_1
XANTENNA__13225__D line[69] VGND VGND VPWR VPWR sky130_fd_sc_hd__diode_2
XANTENNA__08319__D line[2] VGND VGND VPWR VPWR sky130_fd_sc_hd__diode_2
XFILLER_130_44 VGND VGND VPWR VPWR sky130_fd_sc_hd__decap_12
XFILLER_43_548 VGND VGND VPWR VPWR sky130_fd_sc_hd__fill_1
X_09568_ _09567_/Q _09597_/Y VGND VGND VPWR VPWR _07048_/Z sky130_fd_sc_hd__ebufn_2
XPHY_702 VGND VPWR sky130_fd_sc_hd__tapvpwrvgnd_1
XPHY_2002 VGND VPWR sky130_fd_sc_hd__tapvpwrvgnd_1
XPHY_713 VGND VPWR sky130_fd_sc_hd__tapvpwrvgnd_1
XFILLER_90_15 VGND VGND VPWR VPWR sky130_fd_sc_hd__decap_12
XPHY_2013 VGND VPWR sky130_fd_sc_hd__tapvpwrvgnd_1
XPHY_2024 VGND VPWR sky130_fd_sc_hd__tapvpwrvgnd_1
XPHY_724 VGND VPWR sky130_fd_sc_hd__tapvpwrvgnd_1
X_08519_ _08515_/CLK line[108] VGND VGND VPWR VPWR _08520_/A sky130_fd_sc_hd__dfxtp_1
XPHY_2035 VGND VPWR sky130_fd_sc_hd__tapvpwrvgnd_1
XPHY_735 VGND VPWR sky130_fd_sc_hd__tapvpwrvgnd_1
XPHY_1301 VGND VPWR sky130_fd_sc_hd__tapvpwrvgnd_1
XPHY_746 VGND VPWR sky130_fd_sc_hd__tapvpwrvgnd_1
X_09499_ _09505_/CLK line[44] VGND VGND VPWR VPWR _09499_/Q sky130_fd_sc_hd__dfxtp_1
XFILLER_23_261 VGND VGND VPWR VPWR sky130_fd_sc_hd__fill_1
XANTENNA__08616__B wr VGND VGND VPWR VPWR sky130_fd_sc_hd__diode_2
XPHY_2046 VGND VPWR sky130_fd_sc_hd__tapvpwrvgnd_1
XPHY_757 VGND VPWR sky130_fd_sc_hd__tapvpwrvgnd_1
XPHY_2057 VGND VPWR sky130_fd_sc_hd__tapvpwrvgnd_1
XPHY_1312 VGND VPWR sky130_fd_sc_hd__tapvpwrvgnd_1
XPHY_768 VGND VPWR sky130_fd_sc_hd__tapvpwrvgnd_1
XANTENNA_OVHB\[27\].VALID\[5\].FF_D A[14] VGND VGND VPWR VPWR sky130_fd_sc_hd__diode_2
XPHY_2068 VGND VPWR sky130_fd_sc_hd__tapvpwrvgnd_1
XPHY_1323 VGND VPWR sky130_fd_sc_hd__tapvpwrvgnd_1
X_11530_ _11529_/Q _11557_/Y VGND VGND VPWR VPWR _07050_/Z sky130_fd_sc_hd__ebufn_2
XPHY_2079 VGND VPWR sky130_fd_sc_hd__tapvpwrvgnd_1
XPHY_1334 VGND VPWR sky130_fd_sc_hd__tapvpwrvgnd_1
XPHY_779 VGND VPWR sky130_fd_sc_hd__tapvpwrvgnd_1
XPHY_1345 VGND VPWR sky130_fd_sc_hd__tapvpwrvgnd_1
XFILLER_135_3 VGND VGND VPWR VPWR sky130_fd_sc_hd__decap_12
XPHY_1356 VGND VPWR sky130_fd_sc_hd__tapvpwrvgnd_1
XFILLER_184_737 VGND VGND VPWR VPWR sky130_fd_sc_hd__fill_1
XFILLER_7_416 VGND VGND VPWR VPWR sky130_fd_sc_hd__fill_1
XANTENNA__10584__D line[28] VGND VGND VPWR VPWR sky130_fd_sc_hd__diode_2
XPHY_1367 VGND VPWR sky130_fd_sc_hd__tapvpwrvgnd_1
XPHY_1378 VGND VPWR sky130_fd_sc_hd__tapvpwrvgnd_1
X_11461_ _11469_/CLK line[45] VGND VGND VPWR VPWR _11462_/A sky130_fd_sc_hd__dfxtp_1
XFILLER_23_86 VGND VGND VPWR VPWR sky130_fd_sc_hd__fill_2
XPHY_1389 VGND VPWR sky130_fd_sc_hd__tapvpwrvgnd_1
XANTENNA__05678__D line[80] VGND VGND VPWR VPWR sky130_fd_sc_hd__diode_2
X_13200_ _13200_/CLK _13201_/X VGND VGND VPWR VPWR _13194_/CLK sky130_fd_sc_hd__dlclkp_1
X_10412_ _10412_/A _10437_/Y VGND VGND VPWR VPWR _12932_/Z sky130_fd_sc_hd__ebufn_2
X_11392_ _11391_/Q _11417_/Y VGND VGND VPWR VPWR _06912_/Z sky130_fd_sc_hd__ebufn_2
XFILLER_164_461 VGND VGND VPWR VPWR sky130_fd_sc_hd__fill_1